%%%%%%%%%%%%%%%%%%%%%%%%%%%%%%%%%%%%%%%%%%%%%%%%%%%%%%%%%%%%%%%%%%%%%%%%%%%%%%%%
%                                                                              %
% SU2 configuration file                                                       %
% Case description: Steady, laminar flow around a cylinder (Re 20)             %
% Author: Thomas D. Economon                                                   %
% Institution: Stanford University                                             %
% Date: 2013.09.30                                                             %
% File Version 4.0.1 "Cardinal"                                                %
%                                                                              %
%%%%%%%%%%%%%%%%%%%%%%%%%%%%%%%%%%%%%%%%%%%%%%%%%%%%%%%%%%%%%%%%%%%%%%%%%%%%%%%%

% ------------- DIRECT, ADJOINT, AND LINEARIZED PROBLEM DEFINITION ------------%
%
% Physical governing equations (EULER, NAVIER_STOKES,
%                               TNE2_EULER, TNE2_NAVIER_STOKES,
%                               WAVE_EQUATION, HEAT_EQUATION, LINEAR_ELASTICITY,
%                               POISSON_EQUATION)
PHYSICAL_PROBLEM= NAVIER_STOKES
%
% Specify turbulent model (NONE, SA, SA_NEG, SST)
KIND_TURB_MODEL= NONE
%
% Mathematical problem (DIRECT, CONTINUOUS_ADJOINT)
MATH_PROBLEM= DIRECT
%
% Restart solution (NO, YES)
RESTART_SOL= NO
%
% Flow regime
%REGIME_TYPE=INCOMPRESSIBLE
REGIME_TYPE=COMPRESSIBLE

%----------------------- INCOMPRESSIBLE FREE-STREAM DEFINITION ----------------%
%
% Free stream density
FREESTREAM_DENSITY=1.2886
%
% Free stream velocity
FREESTREAM_VELOCITY=(0.013837, 0, 0)
%
% Free steam viscosity
FREESTREAM_VISCOSITY=1.783E-5
%
% ------------------------- UNSTEADY SIMULATION -------------------------------%
%
% Unsteady simulation (NO, TIME_STEPPING, DUAL_TIME_STEPPING-1ST_ORDER, 
%                      DUAL_TIME_STEPPING-2ND_ORDER, TIME_SPECTRAL)
%UNSTEADY_SIMULATION= DUAL_TIME_STEPPING-2ND_ORDER
UNSTEADY_SIMULATION= DUAL_TIME_STEPPING-1ST_ORDER
%
% Time Step for dual time stepping simulations (s)
UNST_TIMESTEP= 0.001
%
% Total Physical Time for dual time stepping simulations (s)
UNST_TIME= 0.5
%
% Number of internal iterations (dual time method)
UNST_INT_ITER= 200

% -------------------- COMPRESSIBLE FREE-STREAM DEFINITION --------------------%
%
% Mach number (non-dimensional, based on the free-stream values)
MACH_NUMBER= 0.3
%
% Angle of attack (degrees, only for compressible flows)
AoA= 20
%
% Free-stream temperature (288.15 K by default)
FREESTREAM_TEMPERATURE= 288.15
%
% Reynolds number (non-dimensional, based on the free-stream values)
REYNOLDS_NUMBER= 10000.0
%
% Reynolds length (1 m by default)
REYNOLDS_LENGTH= 1.0

% ---------------------- REFERENCE VALUE DEFINITION ---------------------------%
%
% Reference origin for moment computation
REF_ORIGIN_MOMENT_X = 0.25
REF_ORIGIN_MOMENT_Y = 0.00
REF_ORIGIN_MOMENT_Z = 0.00
%
% Reference length for pitching, rolling, and yawing non-dimensional moment
REF_LENGTH = 1.0
%
% Reference area for force coefficients (0 implies automatic calculation)
REF_AREA= 1.0
%

% -------------------- BOUNDARY CONDITION DEFINITION --------------------------%
%
% Navier-Stokes wall boundary marker(s) (NONE = no marker)
%MARKER_HEATFLUX= ( airfoil, 0.0, Slit1, 0.0, Slit2, 0.0 )
MARKER_HEATFLUX= ( airfoil, 0.0 )
%
% Farfield boundary marker(s) (NONE = no marker)
MARKER_FAR= ( farfield )
%
% Marker(s) of the surface to be plotted or designed
MARKER_PLOTTING= ( airfoil )
%
% Marker(s) of the surface where the functional (Cd, Cl, etc.) will be evaluated
MARKER_MONITORING= ( airfoil )

% Markers for AFC 
%MARKER_INLET = ( Slit1, 1.0, 0.0014, 0.7071, 0.7071, 0, Slit2, 1.0, 0.0014, 0.7071, -0.7071, 0) %45, 315
%MARKER_INLET = ( Slit1, 1.0, 0.0014, 0.5, 0.866, 0, Slit2, 1.0, 0.0014, 0.5, -0.866, 0) %60, 300
%MARKER_INLET = ( Slit1, 1.0, 0.0014, -0.2588, 0.9659, 0, Slit2, 1.0, 0.0014, -0.2588, -0.9659, 0) %105, 255
%MARKER_INLET = ( Slit1, 1.0, 0.0014, 0.0, 1.0, 0, Slit2, 1.0, 0.0014, 0.0, -1.0, 0) %90, 270
%MARKER_INLET = ( Slit1, 1.0, 0.0014, -0.5, 0.866, 0, Slit2, 1.0, 0.0014, -0.5, -0.866, 0) %120,240
%INLET_TYPE = MASS_FLOW




% ------------- COMMON PARAMETERS DEFINING THE NUMERICAL METHOD ---------------%
%
% Numerical method for spatial gradients (GREEN_GAUSS, WEIGHTED_LEAST_SQUARES)
NUM_METHOD_GRAD= WEIGHTED_LEAST_SQUARES
%
% Courant-Friedrichs-Lewy condition of the finest grid
CFL_NUMBER= 50
%
% Adaptive CFL number (NO, YES)
%CFL_ADAPT= NO
%
% Parameters of the adaptive CFL number (factor down, factor up, CFL min value,
%                                        CFL max value )
%CFL_ADAPT_PARAM= ( 1.5, 0.5, 1.0, 100.0 )
%
% Runge-Kutta alpha coefficients
RK_ALPHA_COEFF= ( 0.66667, 0.66667, 1.000000 )
%
% Number of total iterations (total number of time steps)
EXT_ITER= 20

% ------------------------ LINEAR SOLVER DEFINITION ---------------------------%
%
% Linear solver for implicit formulations (BCGSTAB, FGMRES)
LINEAR_SOLVER= FGMRES
%
% Preconditioner of the Krylov linear solver (JACOBI, LINELET, LU_SGS)
LINEAR_SOLVER_PREC= ILU
%
% Minimum error of the linear solver for implicit formulations
LINEAR_SOLVER_ERROR= 1E-6
%
% Max number of iterations of the linear solver for the implicit formulation
LINEAR_SOLVER_ITER= 10

% -------------------------- MULTIGRID PARAMETERS -----------------------------%
%
% Multi-Grid Levels (0 = no multi-grid)
MGLEVEL= 0
%
% Multi-grid cycle (V_CYCLE, W_CYCLE, FULLMG_CYCLE)
MGCYCLE= V_CYCLE
%
% Multi-grid pre-smoothing level
MG_PRE_SMOOTH= ( 1, 2, 3, 3 )
%
% Multi-grid post-smoothing level
MG_POST_SMOOTH= ( 0, 0, 0, 0 )
%
% Jacobi implicit smoothing of the correction
MG_CORRECTION_SMOOTH= ( 0, 0, 0, 0 )
%
% Damping factor for the residual restriction
MG_DAMP_RESTRICTION= 0.8
%
% Damping factor for the correction prolongation
MG_DAMP_PROLONGATION= 0.8

% -------------------- FLOW NUMERICAL METHOD DEFINITION -----------------------%
%
% Convective numerical method (JST, LAX-FRIEDRICH, CUSP, ROE, AUSM, HLLC,
%                              TURKEL_PREC, MSW)
CONV_NUM_METHOD_FLOW= JST
%
% Spatial numerical order integration (1ST_ORDER, 2ND_ORDER, 2ND_ORDER_LIMITER)
%
MUSCL_FLOW = YES
%
% 1st, 2nd and 4th order artificial dissipation coefficients
JST_SENSOR_COEFF = ( 0.5, 0.02 )
%
% Time discretization (RUNGE-KUTTA_EXPLICIT, EULER_IMPLICIT, EULER_EXPLICIT)
TIME_DISCRE_FLOW= EULER_IMPLICIT

% --------------------------- CONVERGENCE PARAMETERS --------------------------%
%
% Convergence criteria (CAUCHY, RESIDUAL)
CONV_CRITERIA= RESIDUAL
%
% Residual reduction (order of magnitude with respect to the initial value)
RESIDUAL_REDUCTION= 5
%
% Min value of the residual (log10 of the residual)
RESIDUAL_MINVAL= -8
%
% Start convergence criteria at iteration number
STARTCONV_ITER= 0
%
% Number of elements to apply the criteria
CAUCHY_ELEMS= 100
%
% Epsilon to control the series convergence
CAUCHY_EPS= 0E-7
%
% Function to apply the criteria (LIFT, DRAG, NEARFIELD_PRESS, SENS_GEOMETRY, 
% 	      	    		 SENS_MACH, DELTA_LIFT, DELTA_DRAG)
CAUCHY_FUNC_FLOW= DRAG

% ------------------------- INPUT/OUTPUT INFORMATION --------------------------%
%
% Mesh input file
%MESH_FILENAME= mesh_cylinder_slits_wake_90_270.su2
%MESH_FILENAME= mesh_cylinder_slits_wake_75_285.su2
%MESH_FILENAME= mesh_cylinder_slits_wake_105_255.su2
%MESH_FILENAME= mesh_cylinder_slits_wake_60_300.su2
%MESH_FILENAME= mesh_cylinder_slits_wake_45_315.su2
MESH_FILENAME= mesh_NACA0012_lam_hybrid_v1.su2
%
% Mesh input file format (SU2, CGNS, NETCDF_ASCII)
MESH_FORMAT= SU2
%
% Mesh output file
MESH_OUT_FILENAME= mesh_out.su2
%
% Restart flow input file
SOLUTION_FLOW_FILENAME= restart_flow.dat
%
% Restart linear flow input file
%SOLUTION_LIN_FILENAME= solution_lin.dat
%
% Restart adjoint input file
SOLUTION_ADJ_FILENAME= solution_adj.dat
%
% Output file format (PARAVIEW, TECPLOT, STL)
OUTPUT_FORMAT= TECPLOT
%
% Output file convergence history (w/o extension) 
CONV_FILENAME= history
%
% Output file restart flow
RESTART_FLOW_FILENAME= restart_flow.dat
%
% Output file restart adjoint
RESTART_ADJ_FILENAME= restart_adj.dat
%
% Output file linear flow
%RESTART_LIN_FILENAME= restart_lin.dat
%
% Output file flow (w/o extension) variables
VOLUME_FLOW_FILENAME= flow
%
% Output file adjoint (w/o extension) variables
VOLUME_ADJ_FILENAME= adjoint
%
% Output file linearized (w/o extension) variables
%VOLUME_LIN_FILENAME= linearized
%
% Output objective function gradient (using continuous adjoint)
GRAD_OBJFUNC_FILENAME= of_grad.dat
%
% Output file surface flow coefficient (w/o extension)
SURFACE_FLOW_FILENAME= surface_flow
%
% Output file surface adjoint coefficient (w/o extension)
SURFACE_ADJ_FILENAME= surface_adjoint
%
% Output file surface linear coefficient (w/o extension)
%SURFACE_LIN_FILENAME= surface_linear
%
% Writing solution file frequency
WRT_SOL_FREQ= 1
%
% Writing convergence history frequency
WRT_CON_FREQ= 1
%
% Verbosity of console output: NONE removes minor MPI overhead (NONE, HIGH)
CONSOLE_OUTPUT_VERBOSITY= NONE
%

% Read and write not in binary
WRT_BINARY_RESTART = NO
READ_BINARY_RESTART = NO

% ------------------------- XBRAID CONFIGURATION --------------------------%
%Boolean: if 1, run xBraid simulation, if 0, run time-stepping simulation
BRAID_RUN = 1
%
% Number of processors for time parallelization
BRAID_NPROC_TIME=2
%
%  Maximum number of xBraid levels
BRAID_MAX_LEVEL= 3
%
% Minimum possible coarse grid size
BRAID_MIN_COARSE= 2
%
% Number of CF relaxation sweeps on all levels
BRAID_NRELAX= 1
%
% Number of CF relaxations only for level 0 -- overrides nrelax
BRAID_NRELAX0= -1
%
% Halting tolerance
BRAID_TOL= 1.0e-06
%
% Halting norm to use (see docstring below)
BRAID_TNORM=2
%
% Coarsening factor
BRAID_CFACTOR= 2
%
% Coarsening factor for only level 0 -- overrides cfactor
BRAID_CFACTOR0= -1
%
% Maximum number of iterations
BRAID_MAX_ITER=15
%
% Boolean: if 1, do FMG cycles. If 0, use a V cycle
BRAID_FMG = 0
%
% Boolean: if 1, skip all work in down cycle, turn off if you use warm_restart
BRAID_SKIP = 0
%
% Boolean: if 1, do warm restart cycle
BRAID_WARM_RESTART = 1
%
% Level of XBraid printing to the screen: 0-none, 1-medium, 2-high
BRAID_PRINT_LEVEL= 2
%
% Frequency of calls to access routine: 1 is for only after simulation
BRAID_ACCESS_LEVEL= 1
%
% Action Verbosity
BRAID_ACTION_VERB= 0
